
**** 05/09/09 21:14:45 ********* PSpice 9.2 (Mar 2000) ******** ID# 1 ********

 * D:\Designs\Pspice\555.sch


 ****     CIRCUIT DESCRIPTION


******************************************************************************




* Schematics Version 9.2
* Sat May 09 21:14:44 2009


.PARAM         cond=100n 

** Analysis setup **
.tran 20ns 3000us 100u 50ns
.OP 


* From [PSPICE NETLIST] section of C:\Program Files\Orcad\PSpice\PSpice.ini:
.lib "nom.lib"

.INC "555.net"



**** INCLUDING 555.net ****
* Schematics Netlist *



D_D2         $N_0001 0 D1N4148 
R_R3         $N_0003 $N_0002  4.7k  
C_C2         0 $N_0003  3n IC=0 
R_R2         $N_0002 Vcc  4.7k  
R_R8         0 $N_0004  100  
V_V3         Vcc 0 5V
C_C8         $N_0005 $N_0001  {cond}  
V_V5         $N_0006 0 50V
C_C3         0 $N_0007  1n IC=0 
R_R9         Vcc $N_0008  100  
M_M3         $N_0005 $N_0008 0 0 IRF530
Q_Q1         $N_0008 $N_0009 0 BC547C 
X_U2         0 $N_0003 $N_0010 Vcc $N_0007 $N_0003 $N_0002 Vcc 555B
R_R10         $N_0010 $N_0009  10k  
L_L5         $N_0001 $N_0004  3.6mH  
C_C7         0 $N_0004  83n  
L_L4         $N_0006 $N_0005  100mH  

**** RESUMING 555.cir ****
.PROBE V(*) I(*) W(*) D(*) NOISE(*) 


.END

**** 05/09/09 21:14:45 ********* PSpice 9.2 (Mar 2000) ******** ID# 1 ********

 * D:\Designs\Pspice\555.sch


 ****     Diode MODEL PARAMETERS


******************************************************************************




               D1N4148         
          IS    2.682000E-09 
           N    1.836        
         ISR    1.565000E-09 
         IKF     .04417      
          BV  100            
         IBV  100.000000E-06 
          RS     .5664       
          TT   11.540000E-09 
         CJO    4.000000E-12 
          VJ     .5          
           M     .3333       


**** 05/09/09 21:14:45 ********* PSpice 9.2 (Mar 2000) ******** ID# 1 ********

 * D:\Designs\Pspice\555.sch


 ****     BJT MODEL PARAMETERS


******************************************************************************




               BC547C          X_U2.qnpn555    X_U2.qpnp555    
               NPN             NPN             PNP             
          IS    7.049000E-15   14.340000E-15  650.600000E-18 
          BF  543.1            65.62           70.35         
          NF    1               1               1            
         VAF   24.76           74.03          115.7          
         IKF     .09496          .02             .02         
         ISE   78.170000E-15   19.480000E-15  180.500000E-15 
          NE    1.679           1.208           1.829        
          BR    1               9.715           4.146        
          NR    1               1               1            
         IKR    3.321                                        
         ISC   27.510000E-15                                 
          NC    1.775                                        
          NK     .5381                                       
          RB                   10              10            
          RC     .9706          1                .715        
         CJE   11.500000E-12   40.000000E-12   40.000000E-12 
         VJE     .5                                          
         MJE     .6715           .377            .3357       
         CJC    5.250000E-12   40.000000E-12   40.000000E-12 
         VJC     .5697                                       
         MJC     .3147           .3416           .5383       
          TF  410.700000E-12    1.000000E-09    1.000000E-09 
         XTF   26.19            3               1.7          
         VTF   10               1.7             5            
         ITF    1.12             .6              .65         
          TR   10.000000E-09   58.980000E-09  119.900000E-09 
         XTB    1.5             1.5             1.5          
          CN    2.42            2.42            2.2          
           D     .87             .87             .52         


**** 05/09/09 21:14:45 ********* PSpice 9.2 (Mar 2000) ******** ID# 1 ********

 * D:\Designs\Pspice\555.sch


 ****     MOSFET MODEL PARAMETERS


******************************************************************************




               IRF530          
               NMOS            
       LEVEL    3            
           L    2.000000E-06 
           W     .68         
         VTO    3.191        
          KP   20.730000E-06 
       GAMMA    0            
         PHI     .6          
      LAMBDA    0            
          RD     .03869      
          RS     .05853      
          RG    4.63         
         RDS  444.400000E+03 
          IS    1.861000E-12 
          JS    0            
          PB     .8          
        PBSW     .8          
         CBD    1.151000E-09 
          CJ    0            
        CJSW    0            
          TT  125.000000E-09 
        CGSO  876.700000E-12 
        CGDO  261.400000E-12 
        CGBO    0            
         TOX  100.000000E-09 
          XJ    0            
       UCRIT   10.000000E+03 
       DELTA    0            
         ETA    0            
      DIOMOD    1            
         VFB    0            
        LETA    0            
        WETA    0            
          U0    0            
        TEMP    0            
         VDD    0            
       XPART    0            


**** 05/09/09 21:14:45 ********* PSpice 9.2 (Mar 2000) ******** ID# 1 ********

 * D:\Designs\Pspice\555.sch


 ****     SMALL SIGNAL BIAS SOLUTION       TEMPERATURE =   27.000 DEG C


******************************************************************************



 NODE   VOLTAGE     NODE   VOLTAGE     NODE   VOLTAGE     NODE   VOLTAGE


(  Vcc)    5.0000  (X_U2.9)    4.2930 ($N_0001) 14.58E-21                       

($N_0002)     .0123                   ($N_0003) 5.273E-09                       

($N_0004) 14.58E-21                   ($N_0005)   50.0000                       

($N_0006)   50.0000                   ($N_0007) 2.000E-06                       

($N_0008)    5.0000                   ($N_0009)     .0037                       

($N_0010)     .0037                   (X_U2.10)    1.4364                       

(X_U2.11)     .7479                   (X_U2.12)     .0168                       

(X_U2.13)     .6532                   (X_U2.14)     .6437                       

(X_U2.15)     .7924                   (X_U2.16)     .1433                       

(X_U2.17)    4.8017                   (X_U2.18)    4.8020                       

(X_U2.19)    1.1611                   (X_U2.20)    4.9435                       

(X_U2.21)     .5707                   (X_U2.22)     .5502                       

(X_U2.23)     .5284                   (X_U2.24)     .5284                       

(X_U2.25) 50.24E-06                   (X_U2.26)     .7354                       

(X_U2.27)     .6903                   (X_U2.28)     .1841                       

(X_U2.29)     .6964                   (X_U2.30)     .1746                       

(X_U2.31)     .1746                   (X_U2.32) 470.5E-09                   




    VOLTAGE SOURCE CURRENTS
    NAME         CURRENT

    V_V3        -3.816E-03
    V_V5        -6.937E+00

    TOTAL POWER DISSIPATION   3.47E+02  WATTS


**** 05/09/09 21:14:45 ********* PSpice 9.2 (Mar 2000) ******** ID# 1 ********

 * D:\Designs\Pspice\555.sch


 ****     OPERATING POINT INFORMATION      TEMPERATURE =   27.000 DEG C


******************************************************************************






**** DIODES


NAME         D_D2      
MODEL        D1N4148   
ID           0.00E+00 
VD           1.46E-20 
REQ          1.15E+07 
CAP          4.00E-12 


**** BIPOLAR JUNCTION TRANSISTORS


NAME         Q_Q1        X_U2.q_q2               X_U2.q_q1             
MODEL        BC547C      X_U2.qnpn555            X_U2.qnpn555          
IB          -5.02E-12    4.91E-12               -5.18E-13             
IC           1.11E-11    1.86E-11                5.42E-12             
VBE          3.73E-03    1.75E-01               -1.75E-01             
VBC         -5.00E+00   -4.63E+00               -4.80E+00             
VCE          5.00E+00    4.80E+00                4.63E+00             
BETADC      -2.20E+00    3.80E+00               -1.05E+01             
GM           1.76E-13    5.04E-10               -6.18E-14             
RPI          5.09E+11    5.74E+09                5.69E+13             
RX           0.00E+00    1.00E+01                1.00E+01             
RO           7.12E+11    7.73E+11                8.87E+11             
CBE          1.16E-11    4.42E-11                3.70E-11             
CBC          2.56E-12    2.04E-11                2.02E-11             
CJS          0.00E+00    0.00E+00                0.00E+00             
BETAAC       8.97E-02    2.89E+00               -3.52E+00             
CBX/CBX2     0.00E+00    0.00E+00                0.00E+00             
FT/FT2       1.99E-03    1.24E+00               -1.72E-04             



NAME         X_U2.q_q4               X_U2.q_q3             
MODEL        X_U2.qnpn555            X_U2.qnpn555          
IB          -5.18E-13                4.90E-12             
IC           5.42E-12                1.86E-11             
VBE         -1.75E-01                1.75E-01             
VBC         -4.80E+00               -4.63E+00             
VCE          4.63E+00                4.80E+00             
BETADC      -1.05E+01                3.80E+00             
GM          -6.18E-14                5.04E-10             
RPI          5.69E+13                5.74E+09             
RX           1.00E+01                1.00E+01             
RO           8.87E+11                7.73E+11             
CBE          3.70E-11                4.42E-11             
CBC          2.02E-11                2.04E-11             
CJS          0.00E+00                0.00E+00             
BETAAC      -3.52E+00                2.89E+00             
CBX/CBX2     0.00E+00                0.00E+00             
FT/FT2      -1.72E-04                1.24E+00             



NAME         X_U2.q_q5d              X_U2.q_q5             
MODEL        X_U2.qpnp555            X_U2.qpnp555          
IB          -1.08E-11               -1.17E-11             
IC          -6.75E-12               -1.57E-12             
VBE         -1.98E-01               -1.98E-01             
VBC          4.01E+00                0.00E+00             
VCE         -4.21E+00               -1.98E-01             
BETADC       6.27E-01                1.34E-01             
GM           5.50E-11                5.32E-11             
RPI          3.97E+09                3.97E+09             
RX           1.00E+01                1.00E+01             
RO           9.23E+11                9.63E+11             
CBE          4.43E-11                4.43E-11             
CBC          1.48E-11                4.00E-11             
CJS          0.00E+00                0.00E+00             
BETAAC       2.19E-01                2.11E-01             
CBX/CBX2     0.00E+00                0.00E+00             
FT/FT2       1.48E-01                1.00E-01             



NAME         X_U2.q_q6d              X_U2.q_q6             
MODEL        X_U2.qpnp555            X_U2.qpnp555          
IB          -1.07E-11               -1.18E-11             
IC          -7.62E-12               -1.59E-12             
VBE         -1.98E-01               -1.98E-01             
VBC          4.66E+00                0.00E+00             
VCE         -4.86E+00               -1.98E-01             
BETADC       7.15E-01                1.35E-01             
GM           5.59E-11                5.38E-11             
RPI          3.95E+09                3.95E+09             
RX           1.00E+01                1.00E+01             
RO           9.14E+11                9.63E+11             
CBE          4.43E-11                4.43E-11             
CBC          1.38E-11                4.00E-11             
CJS          0.00E+00                0.00E+00             
BETAAC       2.21E-01                2.12E-01             
CBX/CBX2     0.00E+00                0.00E+00             
FT/FT2       1.53E-01                1.01E-01             



NAME         X_U2.q_q11              X_U2.q_q9             
MODEL        X_U2.qpnp555            X_U2.qpnp555          
IB          -9.41E-07               -5.05E-07             
IC          -5.56E-05               -2.73E-05             
VBE         -6.50E-01               -6.33E-01             
VBC          3.13E+00               -2.18E-02             
VCE         -3.78E+00               -6.11E-01             
BETADC       5.91E+01                5.41E+01             
GM           2.14E-03                1.05E-03             
RPI          2.99E+04                5.72E+04             
RX           1.00E+01                1.00E+01             
RO           2.14E+06                4.24E+06             
CBE          6.51E-11                6.32E-11             
CBC          1.65E-11                4.06E-11             
CJS          0.00E+00                0.00E+00             
BETAAC       6.42E+01                6.03E+01             
CBX/CBX2     0.00E+00                0.00E+00             
FT/FT2       4.18E+06                1.61E+06             



NAME         X_U2.q_q10              X_U2.q_q8             
MODEL        X_U2.qpnp555            X_U2.qpnp555          
IB          -1.97E-08               -5.05E-07             
IC          -4.85E-07               -2.73E-05             
VBE         -5.28E-01               -6.33E-01             
VBC          5.02E-05               -4.23E-02             
VCE         -5.28E-01               -5.90E-01             
BETADC       2.46E+01                5.41E+01             
GM           1.87E-05                1.05E-03             
RPI          1.86E+06                5.72E+04             
RX           1.00E+01                1.00E+01             
RO           2.39E+08                4.24E+06             
CBE          5.74E-11                6.32E-11             
CBC          4.00E-11                4.13E-11             
CJS          0.00E+00                0.00E+00             
BETAAC       3.49E+01                6.03E+01             
CBX/CBX2     0.00E+00                0.00E+00             
FT/FT2       3.06E+04                1.61E+06             



NAME         X_U2.q_q7               X_U2.q_q12            
MODEL        X_U2.qpnp555            X_U2.qnpn555          
IB          -1.97E-08                1.24E-06             
IC          -4.85E-07                2.48E-05             
VBE         -5.28E-01                5.50E-01             
VBC          5.27E-09               -2.05E-02             
VCE         -5.28E-01                5.71E-01             
BETADC       2.46E+01                1.99E+01             
GM           1.88E-05                9.57E-04             
RPI          1.86E+06                2.36E+04             
RX           1.00E+01                1.00E+01             
RO           2.38E+08                2.99E+06             
CBE          5.74E-11                6.21E-11             
CBC          4.00E-11                3.96E-11             
CJS          0.00E+00                0.00E+00             
BETAAC       3.49E+01                2.26E+01             
CBX/CBX2     0.00E+00                0.00E+00             
FT/FT2       3.06E+04                1.50E+06             



NAME         X_U2.q_q13              X_U2.q_q16            
MODEL        X_U2.qnpn555            X_U2.qnpn555          
IB           1.24E-06                1.88E-12             
IC           2.48E-05                4.56E-12             
VBE          5.50E-01                1.43E-01             
VBC          0.00E+00               -6.49E-01             
VCE          5.50E-01                7.92E-01             
BETADC       1.99E+01                2.42E+00             
GM           9.57E-04                1.43E-10             
RPI          2.36E+04                1.58E+10             
RX           1.00E+01                1.00E+01             
RO           2.99E+06                9.36E+11             
CBE          6.21E-11                4.33E-11             
CBC          4.00E-11                3.23E-11             
CJS          0.00E+00                0.00E+00             
BETAAC       2.26E+01                2.25E+00             
CBX/CBX2     0.00E+00                0.00E+00             
FT/FT2       1.49E+06                3.00E-01             



NAME         X_U2.q_q15              X_U2.q_q17            
MODEL        X_U2.qnpn555            X_U2.qnpn555          
IB           1.95E-12                2.19E-12             
IC           3.79E-12               -1.86E-12             
VBE          1.43E-01                1.39E-01             
VBC          0.00E+00                1.49E-01             
VCE          1.43E-01               -9.43E-03             
BETADC       1.94E+00               -8.50E-01             
GM           1.41E-10               -5.30E-11             
RPI          1.58E+10                1.80E+10             
RX           1.00E+01                1.00E+01             
RO           6.23E+11                5.73E+09             
CBE          4.33E-11                4.32E-11             
CBC          4.00E-11                4.31E-11             
CJS          0.00E+00                0.00E+00             
BETAAC       2.22E+00               -9.53E-01             
CBX/CBX2     0.00E+00                0.00E+00             
FT/FT2       2.69E-01               -9.77E-02             



NAME         X_U2.q_q18              X_U2.q_q19            
MODEL        X_U2.qnpn555            X_U2.qnpn555          
IB           2.50E-06                1.12E-04             
IC           5.48E-05                4.87E-04             
VBE          5.71E-01                6.53E-01             
VBC         -8.25E-02                6.36E-01             
VCE          6.53E-01                1.68E-02             
BETADC       2.19E+01                4.35E+00             
GM           2.11E-03                2.04E-02             
RPI          1.17E+04                6.79E+02             
RX           1.00E+01                1.00E+01             
RO           1.35E+06                4.07E+01             
CBE          6.43E-11                1.10E-10             
CBC          3.86E-11                1.61E-09             
CJS          0.00E+00                0.00E+00             
BETAAC       2.46E+01                1.38E+01             
CBX/CBX2     0.00E+00                0.00E+00             
FT/FT2       3.27E+06                1.88E+06             



NAME         X_U2.q_q21              X_U2.q_q22            
MODEL        X_U2.qnpn555            X_U2.qpnp555          
IB           1.74E-05               -7.41E-06             
IC           4.69E-04               -4.71E-04             
VBE          6.27E-01               -7.07E-01             
VBC          0.00E+00                0.00E+00             
VCE          6.27E-01               -7.07E-01             
BETADC       2.70E+01                6.36E+01             
GM           1.77E-02                1.78E-02             
RPI          1.65E+03                3.61E+03             
RX           1.00E+01                1.00E+01             
RO           1.58E+05                2.46E+05             
CBE          8.28E-11                8.33E-11             
CBC          4.00E-11                4.00E-11             
CJS          0.00E+00                0.00E+00             
BETAAC       2.93E+01                6.43E+01             
CBX/CBX2     0.00E+00                0.00E+00             
FT/FT2       2.30E+07                2.30E+07             



NAME         X_U2.q_q22d             X_U2.q_q20            
MODEL        X_U2.qpnp555            X_U2.qnpn555          
IB          -7.41E-06               -1.33E-13             
IC          -4.82E-04                1.64E-12             
VBE         -7.07E-01                1.68E-02             
VBC          2.86E+00               -1.42E+00             
VCE         -3.56E+00                1.44E+00             
BETADC       6.51E+01               -1.23E+01             
GM           1.82E-02                1.06E-12             
RPI          3.61E+03                9.11E+11             
RX           1.00E+01                1.00E+01             
RO           2.46E+05                9.63E+11             
CBE          8.37E-11                4.03E-11             
CBC          1.72E-11                2.78E-11             
CJS          0.00E+00                0.00E+00             
BETAAC       6.59E+01                9.66E-01             
CBX/CBX2     0.00E+00                0.00E+00             
FT/FT2       2.88E+07                2.48E-03             



NAME         X_U2.q_q23              X_U2.q_q26            
MODEL        X_U2.qnpn555            X_U2.qnpn555          
IB           3.16E-04                3.26E-04             
IC           6.84E-04                4.63E-05             
VBE          7.01E-01                6.96E-01             
VBC          6.88E-01                6.93E-01             
VCE          1.25E-02                3.73E-03             
BETADC       2.17E+00                1.42E-01             
GM           2.90E-02                9.54E-03             
RPI          2.98E+02                3.53E+02             
RX           2.00E+01                2.00E+01             
RO           1.53E+01                1.34E+01             
CBE          1.18E-10                1.07E-10             
CBC          4.94E-09                5.48E-09             
CJS          0.00E+00                0.00E+00             
BETAAC       8.63E+00                3.37E+00             
CBX/CBX2     0.00E+00                0.00E+00             
FT/FT2       9.12E+05                2.72E+05             



NAME         X_U2.q_q27              X_U2.q_q28            
MODEL        X_U2.qnpn555            X_U2.qnpn555          
IB           1.98E-06                5.99E-12             
IC           4.43E-05                2.21E-11             
VBE          5.64E-01                1.80E-01             
VBC         -4.25E+00               -4.82E+00             
VCE          4.82E+00                5.00E+00             
BETADC       2.24E+01                3.70E+00             
GM           1.71E-03                6.31E-10             
RPI          1.48E+04                4.77E+09             
RX           1.00E+01                1.00E+01             
RO           1.77E+06                7.46E+11             
CBE          6.35E-11                4.44E-11             
CBC          2.09E-11                2.02E-11             
CJS          0.00E+00                0.00E+00             
BETAAC       2.53E+01                3.01E+00             
CBX/CBX2     0.00E+00                0.00E+00             
FT/FT2       3.22E+06                1.56E+00             



NAME         X_U2.q_q24              X_U2.q_q25            
MODEL        X_U2.qpnp555            X_U2.qpnp555          
IB           3.72E-13                1.28E-12             
IC          -1.84E-13               -9.91E-13             
VBE          7.44E-01                4.36E+00             
VBC          7.48E-01                4.31E+00             
VCE         -3.73E-03                4.66E-02             
BETADC      -4.96E-01               -7.73E-01             
GM          -3.23E-17                4.03E-16             
RPI          7.04E+13                7.04E+13             
RX           1.00E+01                1.00E+01             
RO           9.94E+11                9.64E+11             
CBE          3.17E-11                2.10E-11             
CBC          2.76E-11                1.43E-11             
CJS          0.00E+00                0.00E+00             
BETAAC      -2.27E-03                2.83E-02             
CBX/CBX2     0.00E+00                0.00E+00             
FT/FT2      -8.66E-08                1.81E-06             



NAME         X_U2.q_q14            
MODEL        X_U2.qnpn555          
IB           4.51E-04             
IC           1.06E-03             
VBE          6.90E-01             
VBC          6.78E-01             
VCE          1.23E-02             
BETADC       2.35E+00             
GM           4.55E-02             
RPI          2.04E+02             
RX           1.00E+01             
RO           1.03E+01             
CBE          1.98E-10             
CBC          7.00E-09             
CJS          0.00E+00             
BETAAC       9.30E+00             
CBX/CBX2     0.00E+00             
FT/FT2       1.01E+06             




**** MOSFETS


NAME         M_M3      
MODEL        IRF530    
ID           6.94E+00 
VGS          5.00E+00 
VDS          5.00E+01 
VBS          0.00E+00 
VTH          3.19E+00 
VDSAT        1.40E+00 
Lin0/Sat1   -1.00E+00 
if          -1.00E+00 
ir          -1.00E+00 
TAU         -1.00E+00 
GM           9.89E+00 
GDS          2.25E-06 
GMB          0.00E+00 
CBD          1.45E-10 
CBS          1.25E-19 
CGSOV        5.96E-10 
CGDOV        1.78E-10 
CGBOV        0.00E+00 
CGS          3.13E-10 
CGD          0.00E+00 
CGB          0.00E+00 
**** 05/09/09 21:14:45 ********* PSpice 9.2 (Mar 2000) ******** ID# 1 ********

 * D:\Designs\Pspice\555.sch


 ****     INITIAL TRANSIENT SOLUTION       TEMPERATURE =   27.000 DEG C


******************************************************************************



 NODE   VOLTAGE     NODE   VOLTAGE     NODE   VOLTAGE     NODE   VOLTAGE


(  Vcc)    5.0000  (X_U2.9)    4.2930 ($N_0001) 14.58E-21                       

($N_0002)     .0123                   ($N_0003) 5.273E-09                       

($N_0004) 14.58E-21                   ($N_0005)   50.0000                       

($N_0006)   50.0000                   ($N_0007) 2.000E-06                       

($N_0008)    5.0000                   ($N_0009)     .0037                       

($N_0010)     .0037                   (X_U2.10)    1.4364                       

(X_U2.11)     .7479                   (X_U2.12)     .0168                       

(X_U2.13)     .6532                   (X_U2.14)     .6437                       

(X_U2.15)     .7924                   (X_U2.16)     .1433                       

(X_U2.17)    4.8017                   (X_U2.18)    4.8020                       

(X_U2.19)    1.1611                   (X_U2.20)    4.9435                       

(X_U2.21)     .5707                   (X_U2.22)     .5502                       

(X_U2.23)     .5284                   (X_U2.24)     .5284                       

(X_U2.25) 50.24E-06                   (X_U2.26)     .7354                       

(X_U2.27)     .6903                   (X_U2.28)     .1841                       

(X_U2.29)     .6964                   (X_U2.30)     .1746                       

(X_U2.31)     .1746                   (X_U2.32) 470.5E-09                   




    VOLTAGE SOURCE CURRENTS
    NAME         CURRENT

    V_V3        -3.816E-03
    V_V5        -6.937E+00

    TOTAL POWER DISSIPATION   3.47E+02  WATTS


ERROR -- Convergence problem in transient analysis at Time =  2.058E-09
         Time step =  1.062E-15, minimum allowable step size =  3.000E-15

  These devices failed to converge:
    X_U2.q_q28 X_U2.q_q25 



  Last node voltages tried were:

 NODE   VOLTAGE     NODE   VOLTAGE     NODE   VOLTAGE     NODE   VOLTAGE


(  Vcc)    5.0000  (X_U2.9)    4.2930 ($N_0001)-3.446E-09                       

($N_0002)     .0123                   ($N_0003) 4.439E-06                       

($N_0004) 26.59E-15                   ($N_0005)   50.0000                       

($N_0006)   50.0000                   ($N_0007)     .0020                       

($N_0008)    5.0000                   ($N_0009)     .0037                       

($N_0010)     .0037                   (X_U2.10)    1.4364                       

(X_U2.11)     .7479                   (X_U2.12)     .0168                       

(X_U2.13)     .6532                   (X_U2.14)     .6437                       

(X_U2.15)     .7924                   (X_U2.16)     .1434                       

(X_U2.17)    4.8021                   (X_U2.18)    4.8020                       

(X_U2.19)    1.1611                   (X_U2.20)    4.9435                       

(X_U2.21)     .5707                   (X_U2.22)     .5502                       

(X_U2.23)     .5284                   (X_U2.24)     .5284                       

(X_U2.25) 61.63E-06                   (X_U2.26)     .7354                       

(X_U2.27)     .6903                   (X_U2.28)     .1841                       

(X_U2.29)     .6964                   (X_U2.30)     .1757                       

(X_U2.31)     .1749                   (X_U2.32) 634.1E-06                   

