
**** 12/16/08 03:04:07 ********* PSpice 9.2 (Mar 2000) ******** ID# 1 ********

 * D:\Designs\Pspice\ModuladorAM2.sch


 ****     CIRCUIT DESCRIPTION


******************************************************************************




* Schematics Version 9.2
* Tue Dec 16 03:04:03 2008


.PARAM         Lp1=100u Ls1=5u 
.PARAM         Lp2=100u Ls2=5u 

** Analysis setup **
.tran 0ns 60us 1u 1n
.OPTIONS RELTOL=0.0001
.OP 


* From [PSPICE NETLIST] section of D:\Program Files\Orcad\PSpice\PSpice.ini:
.lib "nom.lib"

.INC "ModuladorAM2.net"



**** INCLUDING ModuladorAM2.net ****
* Schematics Netlist *



R_R2         0 $N_0001  4.7k  
Q_Q1         Vcc $N_0002 $N_0003 QBC547C/PLP 
R_R7         0 $N_0004  500  
R_R8         0 $N_0005  500  
R_R9         0 $N_0006  500  
Q_Q6         $N_0008 $N_0007 $N_0005 BC547C 
Q_Q7         $N_0009 $N_0007 $N_0006 BC547C 
Q_Q9         $N_0010 MOD $N_0009 QBF240/PLP 
V_V3         Vcc 0 5v
Q_Q3         Vcc $N_0011 $N_0012 QBC547C/PLP 
C_C2         0 $N_0013  100n  
Q_Q10         out2 $N_0014 $N_0015 QBF240/PLP 
C_C5         0 $N_0014  1u  
R_R12         0 $N_0014  9.4k  
R_R14         $N_0014 Vcc  4.7k  
Q_Q11         out2 OL $N_0010 QBF240/PLP 
R_R3         $N_0012 0  2k  
R_RL2         0 $N_0016  50  
R_R1         $N_0001 Vcc  4.7k  
R_R4         0 $N_0003  2k  
C_C14         Vcc 0  100n  
Q_Q5         $N_0007 $N_0007 $N_0004 BC547C 
R_R6         Vcc $N_0007  4k  
C_C6         MOD $N_0017  100u  
R_R19         MOD Vcc  9.4k  
R_R15         $N_0018 Vcc  9.4k  
C_C7         OL $N_0019  100n  
R_R21         $N_0020 $N_0019  50  
C_C15         0 $N_0018  100u  
R_R13         $N_0021 $N_0018  4.7k  
R_R18         $N_0022 MOD  4.7k  
Q_Q8         $N_0015 $N_0018 $N_0008 QBF240/PLP 
C_C1         $N_0001 0  100n  
Q_Q2         $N_0023 $N_0012 $N_0013 QBC547C/PLP 
Q_Q4         $N_0024 $N_0003 $N_0013 QBC547C/PLP 
X_TX1         $N_0024 Vcc $N_0023 $N_0025 0 XFRM_LIN/CT-PRI PARAMS: Lp1_value=
+ {Lp2} Lp2_value={Lp2} Ls_value={Ls2} Coupling=0.99 Rp_value=0.25 Rs_value=0.25
C_C13         0 Vcc  100n  
R_R31         out2 Vcc  1k  
R_R33         $N_0014 OL  2k  
C_C3         $N_0025 0  500p  
C_C4         $N_0016 0  690p  
L_L1         $N_0025 $N_0016  324nH  
V_V2         $N_0026 0  AC 0.1
+SIN 0 100m 10k 0 0 0
R_R20         $N_0026 $N_0017  100  
Q_Q13         out2 OL $N_0015 QBF240/PLP 
Q_Q12         out2 $N_0014 $N_0010 QBF240/PLP 
R_R32         out2 Vcc  1k  
X_TX4         out2 out2 $N_0002 $N_0001 $N_0011 XFRM_LIN/CT-SEC PARAMS:
+  Lp_value={Lp1} Ls1_value={Ls1} Ls2_value={Ls1} Coupling=0.99 Rp_value=0.25
+  Rs_value=0.25
R_POT_AM2         $N_0022 0  2.35k  
R_Pot_AM         $N_0021 0  2.35k  
R_R10         $N_0009 $N_0008  500  
V_V1         $N_0020 0  AC 0.1
+SIN 0 20m 10Meg 0 0 0
R_R5         0 $N_0013  101  

**** RESUMING ModuladorAM2.cir ****
.PROBE V(*) I(*) W(*) D(*) NOISE(*) 


.END

**** 12/16/08 03:04:07 ********* PSpice 9.2 (Mar 2000) ******** ID# 1 ********

 * D:\Designs\Pspice\ModuladorAM2.sch


 ****     BJT MODEL PARAMETERS


******************************************************************************




               QBC547C/PLP     QBF240/PLP      BC547C          
               NPN             NPN             NPN             
          IS   46.790000E-15  668.600000E-18    7.049000E-15 
          BF  458.7           135             543.1          
          NF    1.01             .9934          1            
         VAF   52.64          116.5            24.76         
         IKF     .1371           .06             .09496      
         ISE    2.642000E-15    1.840000E-15   78.170000E-15 
          NE    1.581           1.632           1.679        
          BR   11.57            6.24            1            
          NR    1.019           1.003           1            
         VAR  364.5             5.34                         
         IKR     .1144           .05            3.321        
         ISC   23.370000E-15    9.197000E-15   27.510000E-15 
          NC    1.164           1.133           1.775        
          NK                                     .5381       
          RB    1               1                            
         RBM    1                .5                          
         IRB    1.000000E-06     .01                         
          RE     .2598           .6                          
          RC    1               1.8              .9706       
         CJE   12.290000E-12    2.288000E-12   11.500000E-12 
         VJE     .5591           .55             .5          
         MJE     .3385           .2019           .6715       
         CJC    4.420000E-12  909.900000E-15    5.250000E-12 
         VJC     .1994           .1927           .5697       
         MJC     .2782           .1982           .3147       
        XCJC     .6193           .811                        
         MJS     .333            .333                        
          FC     .7936           .8999                       
          TF  468.900000E-12  291.100000E-12  410.700000E-12 
         XTF  160              54.94           26.19         
         VTF    2.828           1.762          10            
         ITF     .8842           .1644          1.12         
          TR    0               0              10.000000E-09 
         XTB                                    1.5          
          CN    2.42            2.42            2.42         
           D     .87             .87             .87         


**** 12/16/08 03:04:07 ********* PSpice 9.2 (Mar 2000) ******** ID# 1 ********

 * D:\Designs\Pspice\ModuladorAM2.sch


 ****     SMALL SIGNAL BIAS SOLUTION       TEMPERATURE =   27.000 DEG C


******************************************************************************



 NODE   VOLTAGE     NODE   VOLTAGE     NODE   VOLTAGE     NODE   VOLTAGE


(   OL)    3.2700  (  MOD)    2.1094  (  Vcc)    5.0000  ( out2)    4.0581      

($N_0001)    2.4906                   ($N_0002)    2.4906                       

($N_0003)    1.8715                   ($N_0004)     .4800                       

($N_0005)     .4802                   ($N_0006)     .4802                       

($N_0007)    1.1433                   ($N_0008)    1.3858                       

($N_0009)    1.3858                   ($N_0010)    2.5721                       

($N_0011)    2.4906                   ($N_0012)    1.8715                       

($N_0013)    1.2024                   ($N_0014)    3.2825                       

($N_0015)    2.5721                   ($N_0016)    0.0000                       

($N_0017)    0.0000                   ($N_0018)    2.1094                       

($N_0019)    0.0000                   ($N_0020)    0.0000                       

($N_0021)     .7031                   ($N_0022)     .7031                       

($N_0023)    4.9993                   ($N_0024)    4.9993                       

($N_0025)    0.0000                   ($N_0026)    0.0000                       

(X_TX1.5)    0.0000                   (X_TX1.7)    5.0000                       

(X_TX1.8)    5.0000                   (X_TX1.9)    0.0000                       

(X_TX4.2)    4.0581                   (X_TX4.7)    4.0581                       

(X_TX4.8)    4.0581                   (X_TX4.9)    2.4906                       

(X_TX1.10)    0.0000                  (X_TX4.10)    2.4906                  




    VOLTAGE SOURCE CURRENTS
    NAME         CURRENT

    V_V3        -1.814E-02
    V_V2         0.000E+00
    V_V1         0.000E+00

    TOTAL POWER DISSIPATION   9.07E-02  WATTS


**** 12/16/08 03:04:07 ********* PSpice 9.2 (Mar 2000) ******** ID# 1 ********

 * D:\Designs\Pspice\ModuladorAM2.sch


 ****     OPERATING POINT INFORMATION      TEMPERATURE =   27.000 DEG C


******************************************************************************






**** BIPOLAR JUNCTION TRANSISTORS


NAME         Q_Q1                    Q_Q6        Q_Q7        Q_Q9      
MODEL        QBC547C/PLP             BC547C      BC547C      QBF240/PLP
IB           2.00E-06                2.10E-06    2.10E-06    8.30E-06 
IC           9.47E-04                9.58E-04    9.58E-04    9.50E-04 
VBE          6.19E-01                6.63E-01    6.63E-01    7.24E-01 
VBC         -2.51E+00               -2.42E-01   -2.42E-01   -4.63E-01 
VCE          3.13E+00                9.06E-01    9.06E-01    1.19E+00 
BETADC       4.74E+02                4.56E+02    4.56E+02    1.14E+02 
GM           3.60E-02                3.66E-02    3.66E-02    3.61E-02 
RPI          1.31E+04                1.32E+04    1.32E+04    3.10E+03 
RX           1.00E+00                0.00E+00    0.00E+00    9.99E-01 
RO           5.82E+04                2.61E+04    2.61E+04    1.07E+05 
CBE          4.86E-11                5.37E-11    5.37E-11    1.73E-11 
CBC          1.32E-12                4.70E-12    4.70E-12    5.79E-13 
CJS          0.00E+00                0.00E+00    0.00E+00    0.00E+00 
BETAAC       4.72E+02                4.82E+02    4.82E+02    1.12E+02 
CBX/CBX2     8.14E-13                0.00E+00    0.00E+00    1.35E-13 
FT/FT2       1.13E+08                9.98E+07    9.98E+07    3.20E+08 



NAME         Q_Q3                    Q_Q10       Q_Q11       Q_Q5      
MODEL        QBC547C/PLP             QBF240/PLP  QBF240/PLP  BC547C    
IB           2.00E-06                5.01E-06    3.11E-06    2.12E-06 
IC           9.47E-04                5.80E-04    3.62E-04    9.58E-04 
VBE          6.19E-01                7.10E-01    6.98E-01    6.63E-01 
VBC         -2.51E+00               -7.76E-01   -7.88E-01    0.00E+00 
VCE          3.13E+00                1.49E+00    1.49E+00    6.63E-01 
BETADC       4.74E+02                1.16E+02    1.16E+02    4.52E+02 
GM           3.60E-02                2.22E-02    1.39E-02    3.66E-02 
RPI          1.31E+04                5.14E+03    8.29E+03    1.30E+04 
RX           1.00E+00                9.99E-01    1.00E+00    0.00E+00 
RO           5.82E+04                1.75E+05    2.82E+05    2.58E+04 
CBE          4.86E-11                1.30E-11    1.04E-11    5.37E-11 
CBC          1.32E-12                5.36E-13    5.35E-13    5.25E-12 
CJS          0.00E+00                0.00E+00    0.00E+00    0.00E+00 
BETAAC       4.72E+02                1.14E+02    1.15E+02    4.77E+02 
CBX/CBX2     8.14E-13                1.25E-13    1.25E-13    0.00E+00 
FT/FT2       1.13E+08                2.59E+08    2.00E+08    9.88E+07 



NAME         Q_Q8        Q_Q2                    Q_Q4                  
MODEL        QBF240/PLP  QBC547C/PLP             QBC547C/PLP           
IB           8.30E-06    1.28E-05                1.28E-05             
IC           9.50E-04    5.94E-03                5.94E-03             
VBE          7.24E-01    6.69E-01                6.69E-01             
VBC         -4.63E-01   -3.13E+00               -3.13E+00             
VCE          1.19E+00    3.80E+00                3.80E+00             
BETADC       1.14E+02    4.65E+02                4.65E+02             
GM           3.61E-02    2.19E-01                2.19E-01             
RPI          3.10E+03    2.05E+03                2.05E+03             
RX           9.99E-01    1.00E+00                1.00E+00             
RO           1.07E+05    9.37E+03                9.37E+03             
CBE          1.73E-11    1.38E-10                1.38E-10             
CBC          5.79E-13    1.25E-12                1.25E-12             
CJS          0.00E+00    0.00E+00                0.00E+00             
BETAAC       1.12E+02    4.47E+02                4.47E+02             
CBX/CBX2     1.35E-13    7.69E-13                7.69E-13             
FT/FT2       3.20E+08    2.48E+08                2.48E+08             



NAME         Q_Q13       Q_Q12     
MODEL        QBF240/PLP  QBF240/PLP
IB           3.11E-06    5.01E-06 
IC           3.62E-04    5.80E-04 
VBE          6.98E-01    7.10E-01 
VBC         -7.88E-01   -7.76E-01 
VCE          1.49E+00    1.49E+00 
BETADC       1.16E+02    1.16E+02 
GM           1.39E-02    2.22E-02 
RPI          8.29E+03    5.14E+03 
RX           1.00E+00    9.99E-01 
RO           2.82E+05    1.75E+05 
CBE          1.04E-11    1.30E-11 
CBC          5.35E-13    5.36E-13 
CJS          0.00E+00    0.00E+00 
BETAAC       1.15E+02    1.14E+02 
CBX/CBX2     1.25E-13    1.25E-13 
FT/FT2       2.00E+08    2.59E+08 


**** 12/16/08 03:04:07 ********* PSpice 9.2 (Mar 2000) ******** ID# 1 ********

 * D:\Designs\Pspice\ModuladorAM2.sch


 ****     INITIAL TRANSIENT SOLUTION       TEMPERATURE =   27.000 DEG C


******************************************************************************



 NODE   VOLTAGE     NODE   VOLTAGE     NODE   VOLTAGE     NODE   VOLTAGE


(   OL)    3.2700  (  MOD)    2.1094  (  Vcc)    5.0000  ( out2)    4.0581      

($N_0001)    2.4906                   ($N_0002)    2.4906                       

($N_0003)    1.8715                   ($N_0004)     .4800                       

($N_0005)     .4802                   ($N_0006)     .4802                       

($N_0007)    1.1433                   ($N_0008)    1.3858                       

($N_0009)    1.3858                   ($N_0010)    2.5721                       

($N_0011)    2.4906                   ($N_0012)    1.8715                       

($N_0013)    1.2024                   ($N_0014)    3.2825                       

($N_0015)    2.5721                   ($N_0016)    0.0000                       

($N_0017)    0.0000                   ($N_0018)    2.1094                       

($N_0019)    0.0000                   ($N_0020)    0.0000                       

($N_0021)     .7031                   ($N_0022)     .7031                       

($N_0023)    4.9993                   ($N_0024)    4.9993                       

($N_0025)    0.0000                   ($N_0026)    0.0000                       

(X_TX1.5)    0.0000                   (X_TX1.7)    5.0000                       

(X_TX1.8)    5.0000                   (X_TX1.9)    0.0000                       

(X_TX4.2)    4.0581                   (X_TX4.7)    4.0581                       

(X_TX4.8)    4.0581                   (X_TX4.9)    2.4906                       

(X_TX1.10)    0.0000                  (X_TX4.10)    2.4906                  




    VOLTAGE SOURCE CURRENTS
    NAME         CURRENT

    V_V3        -1.814E-02
    V_V2         0.000E+00
    V_V1         0.000E+00

    TOTAL POWER DISSIPATION   9.07E-02  WATTS


ERROR -- Convergence problem in transient analysis at Time =  2.500E-12
         Time step =  76.29E-18, minimum allowable step size =  600.0E-18

  These voltages failed to converge:

    V($N_0017)                =    1.231uV  \    2.251uV

  These supply currents failed to converge:

    I(V_V2)                   =    12.16nA  \    22.35nA
    I(V_V1)                   =   -59.70nA  \   -57.46nA

  These devices failed to converge:
    Q_Q9      Q_Q10     Q_Q11     Q_Q8      Q_Q13     Q_Q12     



  Last node voltages tried were:

 NODE   VOLTAGE     NODE   VOLTAGE     NODE   VOLTAGE     NODE   VOLTAGE


(   OL)    3.2700  (  MOD)    2.1094  (  Vcc)    5.0000  ( out2)    4.0581      

($N_0001)    2.4906                   ($N_0002)    2.4906                       

($N_0003)    1.8715                   ($N_0004)     .4800                       

($N_0005)     .4802                   ($N_0006)     .4802                       

($N_0007)    1.1433                   ($N_0008)    1.3858                       

($N_0009)    1.3858                   ($N_0010)    2.5721                       

($N_0011)    2.4906                   ($N_0012)    1.8715                       

($N_0013)    1.2024                   ($N_0014)    3.2825                       

($N_0015)    2.5721                   ($N_0016)-286.8E-21                       

($N_0017) 1.231E-06                   ($N_0018)    2.1094                       

($N_0019) 157.5E-09                   ($N_0020) 3.142E-06                       

($N_0021)     .7031                   ($N_0022)     .7031                       

($N_0023)    4.9993                   ($N_0024)    4.9993                       

($N_0025) 88.50E-15                   ($N_0026) 15.71E-09                       

(X_TX1.5)    0.0000                   (X_TX1.7)    5.0000                       

(X_TX1.8)    5.0000                   (X_TX1.9)    0.0000                       

(X_TX4.2)    4.0581                   (X_TX4.7)    4.0581                       

(X_TX4.8)    4.0581                   (X_TX4.9)    2.4906                       

(X_TX1.10)-31.99E-18                  (X_TX4.10)    2.4906                  

