
**** 12/16/08 19:18:40 ********* PSpice 9.2 (Mar 2000) ******** ID# 1 ********

 * D:\Designs\Pspice\ModuladorAM3.sch


 ****     CIRCUIT DESCRIPTION


******************************************************************************




* Schematics Version 9.2
* Tue Dec 16 19:18:18 2008


.PARAM         Lp2=28.8u Ls2=5u cap=68p
.PARAM         Lp1=10u Ls1=10u res=10

** Analysis setup **
.tran 0ns 20us 4u 1n
.OP 


* From [PSPICE NETLIST] section of D:\Program Files\Orcad\PSpice\PSpice.ini:
.lib "nom.lib"

.INC "ModuladorAM3.net"



**** INCLUDING ModuladorAM3.net ****
* Schematics Netlist *



R_R28         0 $N_0001  500  
Q_Q16         $N_0002 $N_0002 $N_0001 BC547C 
R_R29         0 $N_0003  500  
R_R30         0 $N_0004  500  
Q_Q17         $N_0005 $N_0002 $N_0003 BC547C 
Q_Q18         $N_0006 $N_0002 $N_0004 BC547C 
R_R31         $N_0006 $N_0005  500  
R_R32         $N_0007 Vcc  9.4k  
R_R33         $N_0008 0  2.35k  
R_R34         $N_0008 MOD  4.7k  
R_R35         MOD Vcc  9.4k  
Q_Q19         $N_0009 $N_0007 $N_0005 QBF240/PLP 
Q_Q20         $N_0010 MOD $N_0006 QBF240/PLP 
R_R36         $N_0012 $N_0011  50  
C_C11         MOD $N_0011  100u  
V_V4         Vcc 0 5v
C_C12         OL $N_0013  100n  
R_R37         Vcc $N_0002  4k  
R_R38         $N_0014 0  2.35k  
R_R39         $N_0014 $N_0007  4.7k  
C_C14         0 $N_0007  100u  
Q_Q24         out2 $N_0015 $N_0009 QBF240/PLP 
C_C16         0 $N_0015  1u  
R_R40         0 $N_0015  9.4k  
R_R41         $N_0015 Vcc  4.7k  
Q_Q25         out2 OL $N_0010 QBF240/PLP 
R_R42         $N_0016 $N_0013  50  
R_R44         out2 Vcc  1k  
V_V5         $N_0016 0  AC 0.1
+SIN 0 20m 16Meg 0 0 0
R_R45         $N_0015 OL  1k  
V_V6         $N_0012 0  AC 0.1
+SIN 0 100m 10k 0 0 0
Q_Q27         $N_0017 $N_0017 0 QBC547C/PLP 
Q_Q21         $N_0018 $N_0019 0 QBC547C/PLP 
Q_Q14         $N_0020 $N_0021 0 QBC547C/PLP 
C_C19         $N_0022 $N_0019  {cap}  
C_C20         $N_0023 $N_0021  {cap}  
R_R43         out1 Vcc  1k  
Q_Q23         out1 $N_0015 $N_0010 QBF240/PLP 
Q_Q26         out1 OL $N_0009 QBF240/PLP 
X_TX6    out1 out2 $N_0023 $N_0022 ModuladorAM3_TX6 
R_R54         $N_0022 $N_0019  1k  
R_R51         0 $N_0021  10k  
R_R52         $N_0019 0  10k  
X_TX5         $N_0020 Vcc $N_0018 $N_0024 0 XFRM_LIN/CT-PRI PARAMS: Lp1_value=
+ {Lp2} Lp2_value={Lp2} Ls_value={Ls2} Coupling=0.99 Rp_value=0.25 Rs_value=0.25
L_L10         $N_0017 $N_0021  330u  
L_L9         $N_0019 $N_0017  330u  
R_RL2         0 $N_0024  1k  
R_R50         $N_0017 Vcc  4.7k  
R_R53         $N_0023 $N_0021  1k  

.subckt ModuladorAM3_TX6 1 2 3 4  
K_TX6         L1_TX6 L2_TX6 1
L1_TX6         1 2 {Lp1}
L2_TX6         3 4 {Ls1}
.ends ModuladorAM3_TX6

**** RESUMING ModuladorAM3.cir ****
.PROBE V(*) I(*) W(*) D(*) NOISE(*) 


.END

**** 12/16/08 19:18:40 ********* PSpice 9.2 (Mar 2000) ******** ID# 1 ********

 * D:\Designs\Pspice\ModuladorAM3.sch


 ****     BJT MODEL PARAMETERS


******************************************************************************




               BC547C          QBF240/PLP      QBC547C/PLP     
               NPN             NPN             NPN             
          IS    7.049000E-15  668.600000E-18   46.790000E-15 
          BF  543.1           135             458.7          
          NF    1                .9934          1.01         
         VAF   24.76          116.5            52.64         
         IKF     .09496          .06             .1371       
         ISE   78.170000E-15    1.840000E-15    2.642000E-15 
          NE    1.679           1.632           1.581        
          BR    1               6.24           11.57         
          NR    1               1.003           1.019        
         VAR                    5.34          364.5          
         IKR    3.321            .05             .1144       
         ISC   27.510000E-15    9.197000E-15   23.370000E-15 
          NC    1.775           1.133           1.164        
          NK     .5381                                       
          RB                    1               1            
         RBM                     .5             1            
         IRB                     .01            1.000000E-06 
          RE                     .6              .2598       
          RC     .9706          1.8             1            
         CJE   11.500000E-12    2.288000E-12   12.290000E-12 
         VJE     .5              .55             .5591       
         MJE     .6715           .2019           .3385       
         CJC    5.250000E-12  909.900000E-15    4.420000E-12 
         VJC     .5697           .1927           .1994       
         MJC     .3147           .1982           .2782       
        XCJC                     .811            .6193       
         MJS                     .333            .333        
          FC                     .8999           .7936       
          TF  410.700000E-12  291.100000E-12  468.900000E-12 
         XTF   26.19           54.94          160            
         VTF   10               1.762           2.828        
         ITF    1.12             .1644           .8842       
          TR   10.000000E-09    0               0            
         XTB    1.5                                          
          CN    2.42            2.42            2.42         
           D     .87             .87             .87         


**** 12/16/08 19:18:40 ********* PSpice 9.2 (Mar 2000) ******** ID# 1 ********

 * D:\Designs\Pspice\ModuladorAM3.sch


 ****     SMALL SIGNAL BIAS SOLUTION       TEMPERATURE =   27.000 DEG C


******************************************************************************



 NODE   VOLTAGE     NODE   VOLTAGE     NODE   VOLTAGE     NODE   VOLTAGE


(   OL)    3.2755  (  MOD)    2.1094  (  Vcc)    5.0000  ( out1)    4.0581      

( out2)    4.0581  ($N_0001)     .4800                   ($N_0002)    1.1433    

($N_0003)     .4802                   ($N_0004)     .4802                       

($N_0005)    1.3858                   ($N_0006)    1.3858                       

($N_0007)    2.1094                   ($N_0008)     .7031                       

($N_0009)    2.5743                   ($N_0010)    2.5743                       

($N_0011)    0.0000                   ($N_0012)    0.0000                       

($N_0013)    0.0000                   ($N_0014)     .7031                       

($N_0015)    3.2825                   ($N_0016)    0.0000                       

($N_0017)     .6161                   ($N_0018)    4.9999                       

($N_0019)     .6161                   ($N_0020)    4.9999                       

($N_0021)     .6161                   ($N_0022)     .6161                       

($N_0023)     .6161                   ($N_0024)    0.0000                       

(X_TX5.5)    0.0000                   (X_TX5.7)    5.0000                       

(X_TX5.8)    5.0000                   (X_TX5.9)    0.0000                       

(X_TX5.10)    0.0000                  




    VOLTAGE SOURCE CURRENTS
    NAME         CURRENT

    V_V4        -6.503E-03
    V_V5         0.000E+00
    V_V6         0.000E+00

    TOTAL POWER DISSIPATION   3.25E-02  WATTS


**** 12/16/08 19:18:40 ********* PSpice 9.2 (Mar 2000) ******** ID# 1 ********

 * D:\Designs\Pspice\ModuladorAM3.sch


 ****     OPERATING POINT INFORMATION      TEMPERATURE =   27.000 DEG C


******************************************************************************






**** BIPOLAR JUNCTION TRANSISTORS


NAME         Q_Q16       Q_Q17       Q_Q18       Q_Q19       Q_Q20     
MODEL        BC547C      BC547C      BC547C      QBF240/PLP  QBF240/PLP
IB           2.12E-06    2.10E-06    2.10E-06    8.30E-06    8.30E-06 
IC           9.58E-04    9.58E-04    9.58E-04    9.50E-04    9.50E-04 
VBE          6.63E-01    6.63E-01    6.63E-01    7.24E-01    7.24E-01 
VBC          0.00E+00   -2.42E-01   -2.42E-01   -4.65E-01   -4.65E-01 
VCE          6.63E-01    9.06E-01    9.06E-01    1.19E+00    1.19E+00 
BETADC       4.52E+02    4.56E+02    4.56E+02    1.14E+02    1.14E+02 
GM           3.66E-02    3.66E-02    3.66E-02    3.61E-02    3.61E-02 
RPI          1.30E+04    1.32E+04    1.32E+04    3.10E+03    3.10E+03 
RX           0.00E+00    0.00E+00    0.00E+00    9.99E-01    9.99E-01 
RO           2.58E+04    2.61E+04    2.61E+04    1.07E+05    1.07E+05 
CBE          5.37E-11    5.37E-11    5.37E-11    1.73E-11    1.73E-11 
CBC          5.25E-12    4.70E-12    4.70E-12    5.79E-13    5.79E-13 
CJS          0.00E+00    0.00E+00    0.00E+00    0.00E+00    0.00E+00 
BETAAC       4.77E+02    4.82E+02    4.82E+02    1.12E+02    1.12E+02 
CBX/CBX2     0.00E+00    0.00E+00    0.00E+00    1.35E-13    1.35E-13 
FT/FT2       9.88E+07    9.98E+07    9.98E+07    3.20E+08    3.20E+08 



NAME         Q_Q24       Q_Q25       Q_Q27                 
MODEL        QBF240/PLP  QBF240/PLP  QBC547C/PLP           
IB           4.60E-06    3.51E-06    1.78E-06             
IC           5.33E-04    4.09E-04    8.04E-04             
VBE          7.08E-01    7.01E-01    6.16E-01             
VBC         -7.76E-01   -7.83E-01    0.00E+00             
VCE          1.48E+00    1.48E+00    6.16E-01             
BETADC       1.16E+02    1.16E+02    4.53E+02             
GM           2.04E-02    1.57E-02    3.06E-02             
RPI          5.60E+03    7.34E+03    1.47E+04             
RX           9.99E-01    1.00E+00    1.00E+00             
RO           1.91E+05    2.50E+05    6.53E+04             
CBE          1.24E-11    1.10E-11    4.59E-11             
CBC          5.36E-13    5.35E-13    2.74E-12             
CJS          0.00E+00    0.00E+00    0.00E+00             
BETAAC       1.14E+02    1.15E+02    4.51E+02             
CBX/CBX2     1.25E-13    1.25E-13    1.68E-12             
FT/FT2       2.48E+08    2.15E+08    9.67E+07             



NAME         Q_Q21                   Q_Q14                   Q_Q23     
MODEL        QBC547C/PLP             QBC547C/PLP             QBF240/PLP
IB           1.77E-06                1.77E-06                4.60E-06 
IC           8.71E-04                8.71E-04                5.33E-04 
VBE          6.16E-01                6.16E-01                7.08E-01 
VBC         -4.38E+00               -4.38E+00               -7.76E-01 
VCE          5.00E+00                5.00E+00                1.48E+00 
BETADC       4.91E+02                4.91E+02                1.16E+02 
GM           3.31E-02                3.31E-02                2.04E-02 
RPI          1.47E+04                1.47E+04                5.60E+03 
RX           1.00E+00                1.00E+00                9.99E-01 
RO           6.54E+04                6.54E+04                1.91E+05 
CBE          4.71E-11                4.71E-11                1.24E-11 
CBC          1.14E-12                1.14E-12                5.36E-13 
CJS          0.00E+00                0.00E+00                0.00E+00 
BETAAC       4.88E+02                4.88E+02                1.14E+02 
CBX/CBX2     7.04E-13                7.04E-13                1.25E-13 
FT/FT2       1.08E+08                1.08E+08                2.48E+08 



NAME         Q_Q26     
MODEL        QBF240/PLP
IB           3.51E-06 
IC           4.09E-04 
VBE          7.01E-01 
VBC         -7.83E-01 
VCE          1.48E+00 
BETADC       1.16E+02 
GM           1.57E-02 
RPI          7.34E+03 
RX           1.00E+00 
RO           2.50E+05 
CBE          1.10E-11 
CBC          5.35E-13 
CJS          0.00E+00 
BETAAC       1.15E+02 
CBX/CBX2     1.25E-13 
FT/FT2       2.15E+08 


**** 12/16/08 19:18:40 ********* PSpice 9.2 (Mar 2000) ******** ID# 1 ********

 * D:\Designs\Pspice\ModuladorAM3.sch


 ****     INITIAL TRANSIENT SOLUTION       TEMPERATURE =   27.000 DEG C


******************************************************************************



 NODE   VOLTAGE     NODE   VOLTAGE     NODE   VOLTAGE     NODE   VOLTAGE


(   OL)    3.2755  (  MOD)    2.1094  (  Vcc)    5.0000  ( out1)    4.0581      

( out2)    4.0581  ($N_0001)     .4800                   ($N_0002)    1.1433    

($N_0003)     .4802                   ($N_0004)     .4802                       

($N_0005)    1.3858                   ($N_0006)    1.3858                       

($N_0007)    2.1094                   ($N_0008)     .7031                       

($N_0009)    2.5743                   ($N_0010)    2.5743                       

($N_0011)    0.0000                   ($N_0012)    0.0000                       

($N_0013)    0.0000                   ($N_0014)     .7031                       

($N_0015)    3.2825                   ($N_0016)    0.0000                       

($N_0017)     .6161                   ($N_0018)    4.9999                       

($N_0019)     .6161                   ($N_0020)    4.9999                       

($N_0021)     .6161                   ($N_0022)     .6161                       

($N_0023)     .6161                   ($N_0024)    0.0000                       

(X_TX5.5)    0.0000                   (X_TX5.7)    5.0000                       

(X_TX5.8)    5.0000                   (X_TX5.9)    0.0000                       

(X_TX5.10)    0.0000                  




    VOLTAGE SOURCE CURRENTS
    NAME         CURRENT

    V_V4        -6.503E-03
    V_V5         0.000E+00
    V_V6         0.000E+00

    TOTAL POWER DISSIPATION   3.25E-02  WATTS


ERROR -- Convergence problem in transient analysis at Time =  10.00E-12
         Time step =  4.768E-18, minimum allowable step size =  20.00E-18

  These voltages failed to converge:

    V($N_0011)                =    1.333mV  \    1.576mV
    V($N_0013)                =   126.82uV  \   152.65uV
    V(out2)                   =    -68.65V  \    -31.49V
    V($N_0018)                =   -218.56V  \    -43.86V
    V($N_0019)                =   -144.80V  \    -70.47V
    V($N_0022)                =   -144.80V  \    -70.47V
    V($N_0023)                =   624.79mV  \   626.60mV
    V(out1)                   =     76.77V  \     39.61V
    V($N_0024)                =    489.49V  \   -518.58V
    V(X_TX5.8)                =   -228.33V  \    -41.08V
    V(X_TX5.9)                =    489.55V  \   -518.64V
    V(X_TX5.5)                =    244.77V  \   -259.32V

  These supply currents failed to converge:

    I(X_TX6.L1_TX6)           =    -80.85A  \    -39.53A
    I(X_TX6.L2_TX6)           =     80.85A  \     39.53A
    I(X_TX5.Ls1)              =   161.06nA  \  -203.51nA
    I(X_TX5.Ls2)              =   161.06nA  \  -203.51nA
    I(V_V5)                   =    2.134uA  \    2.651uA
    I(V_V6)                   =    26.67uA  \    31.53uA

  These devices failed to converge:
    Q_Q19     Q_Q20     Q_Q24     Q_Q25     Q_Q21     Q_Q23     Q_Q26     



  Last node voltages tried were:

 NODE   VOLTAGE     NODE   VOLTAGE     NODE   VOLTAGE     NODE   VOLTAGE


(   OL)    3.2756  (  MOD)    2.1108  (  Vcc)    5.0000  ( out1)   76.7680      

( out2)  -68.6520  ($N_0001)     .4807                   ($N_0002)    1.1440    

($N_0003)     .4809                   ($N_0004)     .4809                       

($N_0005)    1.3860                   ($N_0006)    1.3869                       

($N_0007)    2.1094                   ($N_0008)     .7036                       

($N_0009)    2.5744                   ($N_0010)    2.5745                       

($N_0011)     .0013                   ($N_0012) 62.83E-09                       

($N_0013) 126.8E-06                   ($N_0014)     .7031                       

($N_0015)    3.2825                   ($N_0016) 20.11E-06                       

($N_0017)     .6161                   ($N_0018) -218.5600                       

($N_0019) -144.8000                   ($N_0020)    5.0098                       

($N_0021)     .6260                   ($N_0022) -144.8000                       

($N_0023)     .6248                   ($N_0024)  489.4800                       

(X_TX5.5)  244.7700                   (X_TX5.7)    5.0099                       

(X_TX5.8) -228.3300                   (X_TX5.9)  489.5500                       

(X_TX5.10) 20.13E-09                  

